8

C      18.31243557      15.00000000      13.52000000 
C      18.21243557      15.00000000       9.29000000 
C      18.27461339      15.00000000      10.70000000 
C      22.37461339      15.00000000       5.61000000 
C      18.32974226      15.00000000      12.11000000 
C      18.90217783      15.00000000       8.06000000 
C      20.96974226      15.00000000       5.77000000 
C      17.48974226      15.00000000       8.07000000 
