88

H      16.00000000      15.00000000       7.21192009 
H      16.00000000      15.00000000       9.63679122 
H      16.00000000      15.00000000      12.06166235 
H      16.00000000      15.00000000      14.48653348 
H      16.00000000      15.00000000      16.91140461 
H      17.20000000      15.00000000       5.07243557 
C      17.80000000      15.00000000       5.99948452 
C      17.10000000      15.00000000       7.21192009 
C      17.80000000      15.00000000       8.42435565 
C      17.10000000      15.00000000       9.63679122 
C      17.80000000      15.00000000      10.84922678 
C      17.10000000      15.00000000      12.06166235 
C      17.80000000      15.00000000      13.27409791 
C      17.10000000      15.00000000      14.48653348 
C      17.80000000      15.00000000      15.69896904 
C      17.10000000      15.00000000      16.91140461 
C      17.80000000      15.00000000      18.12384018 
H      17.20000000      15.00000000      19.04627574 
H      19.80000000      15.00000000       5.07243557 
C      19.20000000      15.00000000       5.99948452 
C      19.90000000      15.00000000       7.21192009 
C      19.20000000      15.00000000       8.42435565 
C      19.90000000      15.00000000       9.63679122 
C      19.20000000      15.00000000      10.84922678 
C      19.90000000      15.00000000      12.06166235 
C      19.20000000      15.00000000      13.27409791 
C      19.90000000      15.00000000      14.48653348 
C      19.20000000      15.00000000      15.69896904 
C      19.90000000      15.00000000      16.91140461 
C      19.20000000      15.00000000      18.12384018 
H      19.80000000      15.00000000      19.04627574 
H      21.40000000      15.00000000       5.07243557 
C      22.00000000      15.00000000       5.99948452 
C      21.30000000      15.00000000       7.21192009 
C      22.00000000      15.00000000       8.42435565 
C      21.30000000      15.00000000       9.63679122 
C      22.00000000      15.00000000      10.84922678 
C      21.30000000      15.00000000      12.06166235 
C      22.00000000      15.00000000      13.27409791 
C      21.30000000      15.00000000      14.48653348 
C      22.00000000      15.00000000      15.69896904 
C      21.30000000      15.00000000      16.91140461 
C      22.00000000      15.00000000      18.12384018 
H      21.40000000      15.00000000      19.04627574 
H      24.00000000      15.00000000       5.07243557 
C      23.40000000      15.00000000       5.99948452 
C      24.10000000      15.00000000       7.21192009 
C      23.40000000      15.00000000       8.42435565 
C      24.10000000      15.00000000       9.63679122 
C      23.40000000      15.00000000      10.84922678 
C      24.10000000      15.00000000      12.06166235 
C      23.40000000      15.00000000      13.27409791 
C      24.10000000      15.00000000      14.48653348 
C      23.40000000      15.00000000      15.69896904 
C      24.10000000      15.00000000      16.91140461 
C      23.40000000      15.00000000      18.12384018 
H      24.00000000      15.00000000      19.04627574 
H      25.60000000      15.00000000       5.07243557 
C      26.20000000      15.00000000       5.99948452 
C      25.50000000      15.00000000       7.21192009 
C      26.20000000      15.00000000       8.42435565 
C      25.50000000      15.00000000       9.63679122 
C      26.20000000      15.00000000      10.84922678 
C      25.50000000      15.00000000      12.06166235 
C      26.20000000      15.00000000      13.27409791 
C      25.50000000      15.00000000      14.48653348 
C      26.20000000      15.00000000      15.69896904 
C      25.50000000      15.00000000      16.91140461 
C      26.20000000      15.00000000      18.12384018 
H      25.60000000      15.00000000      19.04627574 
H      28.20000000      15.00000000       5.07243557 
C      27.60000000      15.00000000       5.99948452 
C      28.30000000      15.00000000       7.21192009 
C      27.60000000      15.00000000       8.42435565 
C      28.30000000      15.00000000       9.63679122 
C      27.60000000      15.00000000      10.84922678 
C      28.30000000      15.00000000      12.06166235 
C      27.60000000      15.00000000      13.27409791 
C      28.30000000      15.00000000      14.48653348 
C      27.60000000      15.00000000      15.69896904 
C      28.30000000      15.00000000      16.91140461 
C      27.60000000      15.00000000      18.12384018 
H      28.20000000      15.00000000      19.04627574 
H      29.40000000      15.00000000       7.21192009 
H      29.40000000      15.00000000       9.63679122 
H      29.40000000      15.00000000      12.06166235 
H      29.40000000      15.00000000      14.48653348 
H      29.40000000      15.00000000      16.91140461 
