54

H      16.00000000      15.00000000       3.63730670 
H      16.00000000      15.00000000       6.06217783 
H      16.00000000      15.00000000       8.48704896 
H      16.00000000      15.00000000      10.91192009 
H      16.00000000      15.00000000      13.33679122 
H      16.00000000      15.00000000      15.76166235 
H      16.00000000      15.00000000      18.18653348 
H      16.00000000      15.00000000      20.61140461 
H      17.20000000      15.00000000       1.50243557 
C      17.80000000      15.00000000       2.42487113 
C      17.10000000      15.00000000       3.63730670 
C      17.80000000      15.00000000       4.84974226 
C      17.10000000      15.00000000       6.06217783 
C      17.80000000      15.00000000       7.27461339 
C      17.10000000      15.00000000       8.48704896 
C      17.80000000      15.00000000       9.69948452 
C      17.10000000      15.00000000      10.91192009 
C      17.80000000      15.00000000      12.12435565 
C      17.10000000      15.00000000      13.33679122 
C      17.80000000      15.00000000      14.54922678 
C      17.10000000      15.00000000      15.76166235 
C      17.80000000      15.00000000      16.97409791 
C      17.10000000      15.00000000      18.18653348 
C      17.80000000      15.00000000      19.39896904 
C      17.10000000      15.00000000      20.61140461 
C      17.80000000      15.00000000      21.82384018 
H      17.20000000      15.00000000      22.74627574 
H      19.80000000      15.00000000       1.50243557 
C      19.20000000      15.00000000       2.42487113 
C      19.90000000      15.00000000       3.63730670 
C      19.20000000      15.00000000       4.84974226 
C      19.90000000      15.00000000       6.06217783 
C      19.20000000      15.00000000       7.27461339 
C      19.90000000      15.00000000       8.48704896 
C      19.20000000      15.00000000       9.69948452 
C      19.90000000      15.00000000      10.91192009 
C      19.20000000      15.00000000      12.12435565 
C      19.90000000      15.00000000      13.33679122 
C      19.20000000      15.00000000      14.54922678 
C      19.90000000      15.00000000      15.76166235 
C      19.20000000      15.00000000      16.97409791 
C      19.90000000      15.00000000      18.18653348 
C      19.20000000      15.00000000      19.39896904 
C      19.90000000      15.00000000      20.61140461 
C      19.20000000      15.00000000      21.82384018 
H      19.80000000      15.00000000      22.74627574 
H      21.00000000      15.00000000       3.63730670 
H      21.00000000      15.00000000       6.06217783 
H      21.00000000      15.00000000       8.48704896 
H      21.00000000      15.00000000      10.91192009 
H      21.00000000      15.00000000      13.33679122 
H      21.00000000      15.00000000      15.76166235 
H      21.00000000      15.00000000      18.18653348 
H      21.00000000      15.00000000      20.61140461 
